4
*Frame: 0
Al -2.427759073634328 -1.389976013640255 -2.0846842843115043
Al -0.9042501865737196 0.878592365337511 1.159577813799645
Al 2.1678065439763987 -1.2328964527322575 2.032363082943625
Al 1.1642027162316486 1.7442803581454325 -1.107256355321335
4
Frame: 1
Al -2.4097254822155776 -1.3755260474683695 -2.06640709041595
Al -1.5336454841532685 0.8442205014306481 1.5044482758859914
Al 2.2541248017968343 -1.3296815941522624 2.0472136833259498
Al 1.6892461645717987 1.8609871401900762 -1.485254868796062
4
*Frame: 1
Al -2.4210466916134075 -1.3821025209131457 -2.0735948543140204
Al -0.9106743478015402 0.8724312280805564 1.1598922598567019
Al 2.1651909595623025 -1.228327857484633 2.0176378543420186
Al 1.1665300798526455 1.7379988932067916 -1.1039352598847
4
Frame: 5
Al -2.086575237465861 -1.048566691648818 -1.784533003781934
Al -0.8629171887172036 0.4099918209694877 0.9805983189439116
Al 1.8681513519218005 -0.9421164761262806 1.7645986807494842
Al 1.0813410742612835 1.5806913468056019 -0.960663995911408
4
*Frame: 5
Al -2.3390752582374637 -1.270542304922135 -1.9317925381028884
Al -0.9921333600885924 0.7800655913124286 1.1602519573496068
Al 2.137843151463432 -1.1560134918953275 1.827520888608566
Al 1.1933654668626241 1.6464902055050339 -1.0559803078552847
4
Frame: 6
Al -2.221436086221882 -1.0690511269375307 -1.8501230974153104
Al -0.8192825077527086 0.3400904081857741 1.0050470332736392
Al 2.0008059555304225 -0.9230150901241094 1.7762991784726587
Al 1.0399126384441857 1.6519758088758891 -0.9312231143309937
4
Frame: 9
Al -1.9212698845078613 -0.822603398674346 -1.5401962677824184
Al -0.5682066336611822 0.13121773423385275 0.7921231690857935
Al 1.743109029821067 -0.6994970053125531 1.4269321106649047
Al 0.7463674883479205 1.3908826697530472 -0.6788590119681839
4
*Frame: 9
Al -2.168990537510943 -1.0222913851977917 -1.661156812928383
Al -1.0757644412963454 0.539547267799032 1.1203165367720826
Al 2.0672239149454072 -0.9517204854407864 1.4744786992089425
Al 1.1775310638618814 1.4344646028395462 -0.933638680163073
4
Frame: 11
Al -1.9035627582616612 -0.7254958851737141 -1.4232958625362724
Al -0.49297915893984556 -0.008715029605766464 0.8118219171737978
Al 1.7937052544221057 -0.6313051168249441 1.209810554327854
Al 0.6028366627794115 1.3655160316044999 -0.5983366089653928
4
Frame: 15
Al -1.3104364566293518 -0.35602306964691655 -0.8391795944436002
Al -0.14723877779808364 -0.2603681844786739 0.5290586852513796
Al 1.3096142530030286 -0.33063596942440965 0.5472155970610647
Al 0.1480609814243937 0.9470272235500032 -0.23709468786883853
4
*Frame: 15
Al -1.3707061010611024 -0.495207031318401 -0.8970914608446628
Al -0.5993699231004295 0.05150153331399715 0.7193193953430437
Al 1.4015791502787853 -0.4592686495004902 0.6343629098637219
Al 0.5684966167723158 0.902974147504894 -0.4565908443621027
4
Frame: 16
Al -1.2300158144452946 -0.30061154837676707 -0.7305398816347459
Al -0.11830951266062661 -0.29253483346460785 0.5144319095259053
Al 1.263553522522376 -0.298226991249098 0.4095732716155871
Al 0.08477180458355038 0.8913733730904871 -0.1934652995067616
4
Frame: 21
Al -0.48067847483890613 0.06693963572494827 -0.06998154055951397
Al 0.2519413086024939 -0.4616455372804187 0.1490567027724097
Al 0.5960935098854812 -0.000823884317549789 -0.2550788343041731
Al -0.36735634364908465 0.3955297858730271 0.17600367209129092
4
Frame: 26
Al 0.2892494742597205 0.4327414893687438 0.5131393468732846
Al 0.6221009060244111 -0.614138083349046 -0.31036499033263265
Al -0.15826481312852758 0.3413581137168187 -0.7498017049784735
Al -0.7530855671555923 -0.15996151973648032 0.5470273484377759
4
Frame: 31
Al 1.235449235249181 0.9051337169257878 1.2129395733752473
Al 1.0430591572119123 -0.856252543597555 -0.8524156004258083
Al -1.0792502130560258 0.8050334767126985 -1.365227531096294
Al -1.1992581794051258 -0.8539146500408861 1.0047035581469266
4
Frame: 36
Al 2.0069589962852925 1.279745595143332 1.7969981208529733
Al 1.3623737861021485 -1.0335237959439594 -1.2544121778871657
Al -1.8141422799067275 1.1710817361542123 -1.90785177064169
Al -1.5551905024807473 -1.4173035353535806 1.3652658276759322
4
Frame: 41
Al 2.331557815776458 1.3686306685229095 2.022826864771811
Al 1.4131308558937894 -0.967669184295695 -1.351336098320818
Al -2.1160209404010972 1.2501336266957317 -2.105373868636274
Al -1.6286677312690951 -1.6510951109229284 1.4338831021852654
4
Frame: 46
Al 2.353346179724765 1.1956782723241304 1.9664923151811493
Al 1.1630733359462466 -0.6242501401128884 -1.1605754480746935
Al -2.1227333373655295 1.0584002514415447 -2.0009230692919235
Al -1.3936861783055106 -1.6298283836528098 1.1950062021854508
4
Frame: 51
Al 2.1472866834262687 0.8222524736506842 1.674566091010072
Al 0.6914487386149402 -0.08071332569175138 -0.7973405127327906
Al -1.9439215737697237 0.6768973974367238 -1.6012175408196843
Al -0.8948138482715366 -1.4184365453956627 0.7239919625424043
4
Frame: 56
Al 1.676899606313225 0.36543520043693345 1.1251776793960695
Al 0.1723880699697684 0.4434445234832661 -0.4227867025843659
Al -1.5869373251303465 0.25992683625865887 -0.8766603298991527
Al -0.2623503511526275 -1.0688065601788557 0.17426935308745084
4
Frame: 61
Al 1.0750861669219884 -0.015551510442530073 0.45080226819653046
Al -0.29857527591034133 0.7582960323069476 -0.07369694614494027
Al -1.113077239275341 -0.045816300725548084 -0.053207349091101225
Al 0.3365663482636552 -0.696928221138849 -0.3238979729604947
4
Frame: 66
Al 0.4968565419228401 -0.3314334558854992 -0.1624861228682697
Al -0.7980837811954267 0.9468099049653915 0.3858711958845593
Al -0.5658296488266725 -0.3087532830769255 0.577663062624719
Al 0.867056888099254 -0.3066231660029811 -0.8010481356409915
4
Frame: 71
Al -0.17343764920518345 -0.7248161296312876 -0.743285568913143
Al -1.3427218442926052 1.191645483557907 0.9771212111832535
Al 0.13999452895467135 -0.6823650030961628 1.0669289959361894
Al 1.376164964543121 0.2155356491695577 -1.3007646382063065
4
Frame: 76
Al -0.9683446153425974 -1.1520346381114255 -1.3134657189119698
Al -1.7738149256424647 1.4571552757334247 1.4736454252806608
Al 0.9369844646703633 -1.0896598905931145 1.5435428253147112
Al 1.8051750763145984 0.78453925297105 -1.7037225316834634
4
Frame: 81
Al -1.601057575374 -1.40235821589222 -1.6959929426179183
Al -1.9597878270949067 1.5725661009567702 1.661904149825146
Al 1.5196724267608932 -1.3121336493296871 1.9003541966448845
Al 2.0411729757080845 1.1419257642651566 -1.8662654038520925
4
Frame: 86
Al -1.8806825770218918 -1.3694528588462287 -1.7719180610333645
Al -1.8562428635631365 1.4413940255313058 1.4651106344837475
Al 1.7142072373866082 -1.2464066467865171 2.0264695617549844
Al 2.0227182031984396 1.1744654801014938 -1.7196621352053594
4
Frame: 91
Al -1.8213700485326232 -1.0519889052852225 -1.550432909775429
Al -1.4224787080323722 1.0196571225923106 0.8718333336755375
Al 1.5433724195751362 -0.8872852792190518 1.8971596759042457
Al 1.700476336989853 0.9196170619119521 -1.218560099804395
4
Frame: 96
Al -1.4836728421579544 -0.5577543702030479 -1.1103568931117112
Al -0.7895253725855906 0.40662774735206897 0.11486591289343284
Al 1.1323025134621667 -0.3650911876779195 1.4995880189926911
Al 1.1408957012813516 0.5162178105288946 -0.504097038774443
