4
*Frame: 0
Al 0.2 0.0 0.1
Al 0.0 1.9 1.8
Al 1.7 0.0 1.8
Al 1.9 1.7 0.0
4
Frame: 1
Al 0.1991318391928482 -0.0004970520802614652 0.09925452191258202
Al -0.00032335769243685067 1.9003141825172574 1.8004146622379942
Al 1.7007752024076055 -0.0004408808069807127 1.800726768151616
Al 1.9004163160919831 1.7006237504619268 -0.0003959522102498954
4
*Frame: 1
Al 0.1991318391928482 -0.0004970520802614652 0.09925452191258202
Al -0.00032335769243685067 1.9003141825172574 1.8004146622379942
Al 1.7007752024076055 -0.0004408808069807127 1.800726768151616
Al 1.9004163160919831 1.7006237504619268 -0.0003959522102498954
4
Frame: 5
Al 0.18733249473539546 -0.00699526708368947 0.08909511068581526
Al -0.005031813592456881 1.9039191264251045 1.8060721892880685
Al 1.711310776612419 -0.00624461962720142 1.810737575206922
Al 1.906388542244643 1.7093207603777285 -0.005904874721095123
4
*Frame: 5
Al 0.18733249473539546 -0.00699526708368947 0.08909511068581526
Al -0.005031813592456881 1.9039191264251045 1.8060721892880685
Al 1.711310776612419 -0.00624461962720142 1.810737575206922
Al 1.906388542244643 1.7093207603777285 -0.005904874721095123
4
Frame: 6
Al 0.1823536937014797 -0.00969001675630586 0.08483480730473592
Al -0.007075765332389704 1.9053606135372656 1.8084719093722834
Al 1.7157736058846682 -0.008663613282153926 1.8149220367992362
Al 1.908948465746242 1.7129930165931364 -0.008228752924603002
4
Frame: 9
Al 0.16277660428394278 -0.019958544619862913 0.06821630567862783
Al -0.014850860087167418 1.910318110700194 1.8177303979878738
Al 1.7333457725523598 -0.017800442753320794 1.8311380648722555
Al 1.9187284832508638 1.7274408767649323 -0.017084767711277978
4
*Frame: 9
Al 0.16277660428394278 -0.019958544619862913 0.06821630567862783
Al -0.014850860087167418 1.910318110700194 1.8177303979878738
Al 1.7333457725523598 -0.017800442753320794 1.8311380648722555
Al 1.9187284832508638 1.7274408767649323 -0.017084767711277978
4
Frame: 11
Al 0.14596952278581204 -0.028498861057747456 0.05418555697039435
Al -0.02150153805828809 1.9141943535967978 1.8256567406896063
Al 1.7485527195563004 -0.02540075596536201 1.8446309798280944
Al 1.9269792957161733 1.7397052635182546 -0.02447327666061556
4
Frame: 15
Al 0.104601520284022 -0.04842270784086752 0.020429883721390915
Al -0.03666306659138059 1.9217158736847137 1.8447869388516889
Al 1.7863266914677818 -0.04308821283971014 1.8763349567562135
Al 1.945734854839572 1.7697950470878077 -0.04155177850181281
4
*Frame: 15
Al 0.104601520284022 -0.04842270784086752 0.020429883721390915
Al -0.03666306659138059 1.9217158736847137 1.8447869388516889
Al 1.7863266914677818 -0.04308821283971014 1.8763349567562135
Al 1.945734854839572 1.7697950470878077 -0.04155177850181281
4
Frame: 16
Al 0.09292700699672035 -0.05385288160470322 0.011085136088710838
Al -0.04082112355712055 1.9235256156177243 1.8501724677545672
Al 1.7970881505512462 -0.047916463559881786 1.8849324736499493
Al 1.9508059659172068 1.7782437296388047 -0.046190076665746496
4
Frame: 21
Al 0.02905694377149302 -0.0820552128994672 -0.03855170078750454
Al -0.06169367787092627 1.9307197362525066 1.879350342270056
Al 1.8567215525299638 -0.07321296568241864 1.9290617583801979
Al 1.9759151810178084 1.824548442421324 -0.06986039903526578
4
Frame: 26
Al -0.03910711175531457 -0.10966269670094046 -0.08888277377898185
Al -0.08031348182134257 1.9337977555789805 1.9097896100518146
Al 1.9216285083596765 -0.09848385184458723 1.9710498467395359
Al 1.9977920842056058 1.8743487930584923 -0.09195668218488229
4
Frame: 31
Al -0.10452928600728781 -0.13330817662360744 -0.13451785250838857
Al -0.09332502855591353 1.9313080679625165 1.9373843173452192
Al 1.984976120431781 -0.12060051060234543 2.0062200989250014
Al 2.0128781926603305 1.922600619355382 -0.10908656293434378
4
Frame: 36
Al -0.159037966523098 -0.1489341685770482 -0.16939375988441802
Al -0.09708459365690424 1.921210135745292 1.9574622910469515
Al 2.038815616864282 -0.13559292281361232 2.0292360437937536
Al 2.017306941384915 1.9633169557373145 -0.11730457412879762
4
Frame: 41
Al -0.1959451290155299 -0.15333401858549947 -0.1884773167356109
Al -0.08886284055664621 1.9020531214196656 1.9665520879949174
Al 2.0767652547652826 -0.1403309129930816 2.0354597793820552
Al 2.0080427124163713 1.9916118102508613 -0.11353454981387232
4
Frame: 46
Al -0.2122184487945437 -0.14568505415258218 -0.18967476033519615
Al -0.06822637628631238 1.8744467465262264 1.9637695682569014
Al 2.0960047381035376 -0.13408714337241837 2.0230729867624264
Al 1.9844400841270788 2.005325451090722 -0.09716779385664141
4
Frame: 51
Al -0.20760987774246728 -0.12749254579174718 -0.17345629281711028
Al -0.037355435998297506 1.8414094694039564 1.950737808633845
Al 2.0963948528060636 -0.11852050988342641 1.9930059472328605
Al 1.9485704576247425 2.0046035863631686 -0.07028746222210241
4
Frame: 56
Al -0.18400296346577444 -0.10201204890106953 -0.14245927226410912
Al -0.0003337120143193754 1.807636516741477 1.930580824781663
Al 2.0795374489683796 -0.09692881116788525 1.9488691305620502
Al 1.9047992227420332 1.9913043434194324 -0.03699068225210921
4
Frame: 61
Al -0.14550109366944336 -0.07320241820803569 -0.10149629584478573
Al 0.03827232870444584 1.7776652487539109 1.9066171055643493
Al 2.0485765860581906 -0.07292354353295814 1.8969702614882153
Al 1.8586521746774025 1.9684607130790417 -0.0020910703802827398
4
Frame: 66
Al -0.09735604367413338 -0.04447826147999519 -0.05644761850855143
Al 0.07418565196452478 1.7543780863887142 1.8820787857731562
Al 2.0077093886612736 -0.049292703381798045 1.844440112953438
Al 1.8154609983592065 1.9393928785650405 0.029928720609453653
4
Frame: 71
Al -0.044838772742999904 -0.018781793079154736 -0.012828809615235292
Al 0.10292307754479968 1.7396065131788296 1.861096272593812
Al 1.9619039667575897 -0.028512641305454695 1.7969699148766356
Al 1.7800117232917583 1.9076879212977427 0.054762622972284423
4
Frame: 76
Al 0.00602175457902888 0.0004026141417929984 0.024141605259057085
Al 0.11974010539924318 1.735508736469643 1.8487797340884355
Al 1.9174278353139382 -0.013863327035483096 1.7590420834657998
Al 1.7568102990992145 1.8779519765160104 0.06803657801420415
4
Frame: 81
Al 0.04834813183140112 0.009420833415959916 0.04950829166160838
Al 0.12087912227481985 1.7443255812130694 1.849410279961189
Al 1.8811671062695594 -0.008816600353261416 1.7348259326954107
Al 1.749605633555922 1.8550701858161964 0.0662554965092876
4
Frame: 86
Al 0.0766226994665382 0.006107957598380872 0.05993743274666901
Al 0.1047027045005642 1.7670240759234495 1.8646227726490034
Al 1.858206707844957 -0.015291451391306499 1.7274296896852726
Al 1.7604678816599217 1.842159417961442 0.048010105746551054
4
Frame: 91
Al 0.08832629023646761 -0.00924069440898962 0.05474011619871308
Al 0.07217517160289119 1.8023954204488974 1.8926392384753394
Al 1.850307214716439 -0.032694427951126454 1.737968388047797
Al 1.7891913164564615 1.8395397020031867 0.01465225810564721
4
Frame: 96
Al 0.0839500423430993 -0.03386107545349183 0.03584236020088591
Al 0.02708110759256195 1.8467368217698383 1.9283237332636987
Al 1.856028789802108 -0.057905762849354094 1.7652713592277367
Al 1.8329400528147675 1.8450300166249791 -0.029437451864824115
